---- qbsp / ericw-tools v0.18.1 ----
Input file: zombielevel.map
Output file: zombielevel.bsp

---- LoadMapFile ----
*** WARNING 06: No info_player_deathmatch entities in level
           54 faces
            9 brushes
            9 entities
            6 unique texnames
           18 texinfo

Opened WAD: C:/QuakeDev/wads/rogue.wad
Processing hull 0...
---- Brush_LoadEntity ----
            9 brushes
           20 planes
---- CSGFaces ----
           54 brushfaces
           54 csgfaces
           54 mergedfaces
---- SolidBSP ----
           86 split nodes
           29 solid leafs
           58 empty leafs
            0 water leafs
            0 detail leafs
            0 detail illusionary leafs
            0 detail fence leafs
            0 illusionary visblocker leafs
          220 leaffaces
          216 nodefaces
---- Portalize ----
           58 vis leafs
           58 vis clusters
          118 vis portals
---- FillOutside ----
           51 outleafs
---- MergeAll ----
           22 mergefaces
---- SolidBSP ----
           15 split nodes
           10 solid leafs
            6 empty leafs
            0 water leafs
            0 detail leafs
            0 detail illusionary leafs
            0 detail fence leafs
            0 illusionary visblocker leafs
           78 leaffaces
           66 nodefaces
---- Portalize ----
            6 vis leafs
            6 vis clusters
            7 vis portals
---- Tjunc ----
           56 world edges
          212 edge points
           40 edges added by tjunctions
            0 faces added by tjunctions
---- MakeFaceEdges ----
---- GrowRegions ----
Processing hull 1...
Processing hull 2...
*** WARNING 19: No entities in empty space -- no filling performed (hull 2)
---- WriteBSPFile ----
Wrote zombielevel.bsp
           44 planes              880
           84 vertexes           1008
           15 nodes               360
           10 texinfo             400
           66 faces              1320
          115 clipnodes           920
            7 leafs               196
           78 marksurfaces        156
          304 surfedges          1216
          153 edges               612
            6 textures          49228
              lightdata             0
              visdata               0
              entdata             543

0.075 seconds elapsed
Peak memory usage: 678260 (0.6M)
